Circuit: * D:\Dropbox (MIT)\Dropbox (MIT)\School Related\IAP DSP COURSE\Amplifier Hardware R1\Amplifier Sims\Multiple Feedback.asc

WARNING: Node N008 is floating.
WARNING: Node N017 is floating.
WARNING: Node N016 is floating.

WARNING: Less than two connections to node n016.  This node is used by c7.
Direct Newton iteration for .op point succeeded.

Date: Sun Nov 26 01:38:17 2023
Total elapsed time: 0.157 seconds.

tnom = 27
temp = 27
method = trap
totiter = 6
traniter = 0
tranpoints = 0
accept = 0
rejected = 0
matrix size = 643
fillins = 1014
solver = Normal
Avg thread counts: 8.0/0.0/8.0/6.1
Matrix Compiler1:    5077 opcodes
Matrix Compiler2: 71.68 KB object code size
